Version 4
SHEET 1 1180 680
WIRE 208 64 -128 64
WIRE 512 64 208 64
WIRE -128 176 -128 64
WIRE -80 176 -128 176
WIRE 144 176 64 176
WIRE 368 176 288 176
WIRE 512 176 512 64
FLAG 208 64 osc
SYMBOL NOT_CMOS 0 176 R0
SYMATTR InstName X1
SYMBOL NOT_CMOS 224 176 R0
SYMATTR InstName X2
SYMBOL NOT_CMOS 448 176 R0
SYMATTR InstName X3
TEXT -112 272 Left 2 !.include BSIM4_model.txt
TEXT -112 296 Left 2 !.ic V(osc)=0
TEXT -112 320 Left 2 !.tran 100u
