Version 4
SHEET 1 880 680
WIRE 192 16 192 0
WIRE 144 96 80 96
WIRE -160 176 -160 64
WIRE 192 176 192 112
WIRE 80 208 80 96
WIRE 80 208 -16 208
WIRE 464 208 464 176
WIRE 192 224 192 176
WIRE 80 304 80 208
WIRE 144 304 80 304
WIRE -160 352 -160 256
FLAG -160 352 0
FLAG -160 64 VDD
FLAG -16 208 IN
IOPIN -16 208 In
FLAG 192 176 OUT
IOPIN 192 176 Out
FLAG 464 272 0
FLAG 192 272 0
FLAG 192 320 0
FLAG 192 0 VDD
SYMBOL nmos4 144 224 R0
SYMATTR InstName M1
SYMATTR Value N_50n
SYMATTR Value2 l=50n w=500n
SYMBOL pmos4 144 16 R0
SYMATTR InstName M2
SYMATTR Value P_50n
SYMATTR Value2 l=50n w=1u
SYMBOL voltage -160 160 R0
WINDOW 123 0 0 Left 0
WINDOW 39 0 0 Left 0
SYMATTR InstName VDD
SYMATTR Value 1
SYMBOL cap 448 208 R0
SYMATTR InstName C1
SYMATTR Value 1000p
TEXT -168 424 Left 2 !.include BSIM4_model.txt
TEXT -144 456 Left 2 !;tran 100u
